Version 4
SHEET 1 880 680
WIRE 160 -80 64 -80
WIRE 320 -80 224 -80
WIRE 64 0 64 -80
WIRE 320 0 320 -80
WIRE 64 128 64 80
WIRE 320 128 320 80
FLAG 64 128 0
FLAG 320 128 0
FLAG 64 -80 Vin
FLAG 320 -80 Vout
SYMBOL voltage 64 -16 R0
WINDOW 123 0 0 Left 0
WINDOW 39 0 0 Left 0
SYMATTR InstName V1
SYMATTR Value SINE(0 21.21 60)
SYMBOL diode 160 -64 R270
WINDOW 0 32 32 VTop 2
WINDOW 3 0 32 VBottom 2
SYMATTR InstName D1
SYMATTR Value 1N4148
SYMBOL res 304 -16 R0
SYMATTR InstName R1
SYMATTR Value 47k
TEXT 366 -96 Left 2 !.tran 0.17
